Version 4
SHEET 1 1216 696
WIRE -480 -80 -624 -80
WIRE -368 -80 -480 -80
WIRE 32 -80 -368 -80
WIRE 240 -80 32 -80
WIRE 336 -80 240 -80
WIRE 560 -80 416 -80
WIRE 624 -80 560 -80
WIRE -624 -48 -624 -80
WIRE 624 -48 624 -80
WIRE -160 48 -272 48
WIRE -144 48 -160 48
WIRE 240 48 240 -80
WIRE -272 80 -272 48
WIRE 32 112 32 -80
WIRE 96 112 32 112
WIRE 560 112 560 -80
WIRE 560 112 384 112
WIRE 624 112 624 16
WIRE 688 112 624 112
WIRE 832 112 688 112
WIRE 960 112 832 112
WIRE 624 160 624 112
WIRE 688 160 688 112
WIRE -128 192 -176 192
WIRE 0 192 -48 192
WIRE 96 192 0 192
WIRE 544 192 384 192
WIRE 0 208 0 192
WIRE 832 208 832 112
WIRE 960 208 960 112
WIRE -176 224 -176 192
WIRE 544 256 544 192
WIRE 624 256 624 240
WIRE 624 256 544 256
WIRE 688 256 688 224
WIRE 688 256 624 256
WIRE -272 272 -272 144
WIRE -240 272 -272 272
WIRE 624 272 624 256
WIRE -272 288 -272 272
WIRE -368 336 -368 -80
WIRE -624 384 -624 32
WIRE -448 384 -624 384
WIRE -272 384 -272 368
WIRE -272 384 -352 384
WIRE -176 384 -176 320
WIRE -176 384 -272 384
WIRE 0 384 0 352
WIRE 0 384 -176 384
WIRE 240 384 240 336
WIRE 240 384 0 384
WIRE 624 384 624 352
WIRE 624 384 240 384
WIRE 832 384 832 272
WIRE 832 384 624 384
WIRE 960 384 960 288
WIRE 960 384 832 384
WIRE 240 496 240 384
FLAG 240 496 0
FLAG 832 112 Vout
FLAG -480 -80 VBAT
FLAG -160 48 Vout
FLAG 0 192 Vc
SYMBOL PowerProducts\\LT1308B 240 192 R0
SYMATTR InstName U1
SYMBOL Misc\\battery -624 -64 R0
WINDOW 123 0 0 Left 2
WINDOW 39 41 79 Left 2
WINDOW 3 42 44 Left 2
SYMATTR SpiceLine Rser=0.1
SYMATTR Value EXP(4.2 3 0.001 0.001 0.001 90)
SYMATTR InstName V1
SYMBOL Misc\\EuropeanResistor -16 192 R0
SYMATTR InstName R2
SYMATTR Value 47K
SYMATTR SpiceLine tol=1 pwr=0.125
SYMBOL Misc\\EuropeanCap -16 288 R0
SYMATTR InstName C1
SYMATTR Value 100pF
SYMATTR SpiceLine V=50 Irms=20.8m Rser=5.448 Lser=0 mfg="KEMET" pn="C0603C101K5RAC" type="X7R"
SYMBOL ind 320 -64 R270
WINDOW 0 32 56 VTop 2
WINDOW 3 5 56 VBottom 2
SYMATTR InstName L1
SYMATTR Value 4.7µH
SYMATTR SpiceLine Ipk=5 Rser=0.023
SYMBOL Misc\\EuropeanResistor 640 256 R180
WINDOW 0 31 76 Left 2
WINDOW 3 31 40 Left 2
SYMATTR InstName R3
SYMATTR Value 316K
SYMATTR SpiceLine tol=1 pwr=0.125
SYMBOL Misc\\EuropeanResistor 640 368 R180
WINDOW 0 31 76 Left 2
WINDOW 3 31 40 Left 2
SYMATTR InstName R5
SYMATTR Value 100K
SYMATTR SpiceLine tol=1 pwr=0.125
SYMBOL schottky 608 -48 R0
SYMATTR InstName D1
SYMATTR Value MBRS130L
SYMBOL Misc\\EuropeanPolcap 816 208 R0
SYMATTR InstName C2
SYMATTR Value 100µ
SYMATTR SpiceLine V=10 Irms=0 Rser=0.05 Lser=0
SYMBOL Misc\\EuropeanCap 672 160 R0
SYMATTR InstName C3
SYMATTR Value 330pF
SYMATTR SpiceLine V=50 Irms=0 Rser=0.40314 Lser=0.28019f mfg="Wuerth Elektronik" pn="885012207083 WCAP-CSGP 0805" type="X7R"
SYMBOL nmos -448 336 M90
SYMATTR InstName M1
SYMATTR Value IRLML6344
SYMBOL Misc\\EuropeanResistor 944 192 R0
SYMATTR InstName R6
SYMATTR Value 10
SYMATTR SpiceLine tol=1 pwr=3
SYMBOL npn -240 224 R0
SYMATTR InstName Q1
SYMATTR Value BC847A
SYMBOL Misc\\EuropeanResistor -32 176 R90
WINDOW 0 5 56 VBottom 2
WINDOW 3 27 56 VTop 2
SYMATTR InstName R1
SYMATTR Value 33K
SYMATTR SpiceLine tol=1 pwr=0.125
SYMBOL Misc\\EuropeanResistor -256 384 R180
WINDOW 0 31 76 Left 2
WINDOW 3 31 40 Left 2
SYMATTR InstName R4
SYMATTR Value 33K
SYMATTR SpiceLine tol=1 pwr=0.125
SYMBOL Misc\\EuropeanCap -288 80 R0
SYMATTR InstName C4
SYMATTR Value 33nF
SYMATTR SpiceLine V=50 Irms=20.8m Rser=5.448 Lser=0
TEXT -552 184 Left 2 !.tran 0.005
